<?xml version="1.0" encoding="utf-8"?>
<configuration>
	<input>
		<net-file value="data.net.xml"/>
		<route-files value="data.rou.xml"/>
		<!-- <additional-files value="data.add_tll.xml"/> -->
	</input>
	<time>
		<begin value="0"/>
		<end value="3600"/>
	</time>
</configuration>
