<routes xmlns:xsi="http://www.w3.org/2001/XMLSchema-instance" xsi:noNamespaceSchemaLocation="http://sumo.dlr.de/xsd/routes_file.xsd">
    <vType id="vtype0" length="5.00" minGap="2.50" maxSpeed="11.11" width="2.00" jmIgnoreJunctionFoeProb="1.0" accel="2.0" decel="4.5" />
    <vehicle id="2" type="vtype0" depart="1.00" departLane="best">
        <route edges="road_1_2_3 road_1_1_0" />
    </vehicle>
    <vehicle id="4" type="vtype0" depart="2.00" departLane="best">
        <route edges="road_1_2_3 road_1_1_3" />
    </vehicle>
    <vehicle id="5" type="vtype0" depart="2.00" departLane="best">
        <route edges="road_2_1_2 road_1_1_2" />
    </vehicle>
    <vehicle id="7" type="vtype0" depart="2.00" departLane="best">
        <route edges="road_0_1_0 road_1_1_0" />
    </vehicle>
    <vehicle id="8" type="vtype0" depart="6.00" departLane="best">
        <route edges="road_0_1_0 road_1_1_1" />
    </vehicle>
    <vehicle id="9" type="vtype0" depart="6.00" departLane="best">
        <route edges="road_0_1_0 road_1_1_0" />
    </vehicle>
    <vehicle id="12" type="vtype0" depart="8.00" departLane="best">
        <route edges="road_1_2_3 road_1_1_0" />
    </vehicle>
    <vehicle id="13" type="vtype0" depart="10.00" departLane="best">
        <route edges="road_0_1_0 road_1_1_1" />
    </vehicle>
    <vehicle id="17" type="vtype0" depart="11.00" departLane="best">
        <route edges="road_1_2_3 road_1_1_3" />
    </vehicle>
    <vehicle id="18" type="vtype0" depart="12.00" departLane="best">
        <route edges="road_2_1_2 road_1_1_2" />
    </vehicle>
    <vehicle id="19" type="vtype0" depart="12.00" departLane="best">
        <route edges="road_0_1_0 road_1_1_0" />
    </vehicle>
    <vehicle id="22" type="vtype0" depart="15.00" departLane="best">
        <route edges="road_1_2_3 road_1_1_0" />
    </vehicle>
    <vehicle id="23" type="vtype0" depart="16.00" departLane="best">
        <route edges="road_1_2_3 road_1_1_0" />
    </vehicle>
    <vehicle id="25" type="vtype0" depart="17.00" departLane="best">
        <route edges="road_2_1_2 road_1_1_2" />
    </vehicle>
    <vehicle id="29" type="vtype0" depart="20.00" departLane="best">
        <route edges="road_1_0_1 road_1_1_2" />
    </vehicle>
    <vehicle id="33" type="vtype0" depart="22.00" departLane="best">
        <route edges="road_0_1_0 road_1_1_1" />
    </vehicle>
    <vehicle id="34" type="vtype0" depart="22.00" departLane="best">
        <route edges="road_0_1_0 road_1_1_0" />
    </vehicle>
    <vehicle id="35" type="vtype0" depart="23.00" departLane="best">
        <route edges="road_2_1_2 road_1_1_3" />
    </vehicle>
    <vehicle id="38" type="vtype0" depart="24.00" departLane="best">
        <route edges="road_0_1_0 road_1_1_1" />
    </vehicle>
    <vehicle id="39" type="vtype0" depart="26.00" departLane="best">
        <route edges="road_1_0_1 road_1_1_1" />
    </vehicle>
    <vehicle id="40" type="vtype0" depart="26.00" departLane="best">
        <route edges="road_0_1_0 road_1_1_1" />
    </vehicle>
    <vehicle id="42" type="vtype0" depart="28.00" departLane="best">
        <route edges="road_2_1_2 road_1_1_3" />
    </vehicle>
    <vehicle id="52" type="vtype0" depart="35.00" departLane="best">
        <route edges="road_1_2_3 road_1_1_0" />
    </vehicle>
    <vehicle id="55" type="vtype0" depart="36.00" departLane="best">
        <route edges="road_0_1_0 road_1_1_1" />
    </vehicle>
    <vehicle id="56" type="vtype0" depart="37.00" departLane="best">
        <route edges="road_2_1_2 road_1_1_2" />
    </vehicle>
    <vehicle id="58" type="vtype0" depart="39.00" departLane="best">
        <route edges="road_0_1_0 road_1_1_0" />
    </vehicle>
    <vehicle id="61" type="vtype0" depart="41.00" departLane="best">
        <route edges="road_1_0_1 road_1_1_1" />
    </vehicle>
    <vehicle id="62" type="vtype0" depart="41.00" departLane="best">
        <route edges="road_2_1_2 road_1_1_2" />
    </vehicle>
    <vehicle id="65" type="vtype0" depart="43.00" departLane="best">
        <route edges="road_0_1_0 road_1_1_1" />
    </vehicle>
    <vehicle id="66" type="vtype0" depart="44.00" departLane="best">
        <route edges="road_0_1_0 road_1_1_0" />
    </vehicle>
    <vehicle id="67" type="vtype0" depart="46.00" departLane="best">
        <route edges="road_2_1_2 road_1_1_3" />
    </vehicle>
    <vehicle id="72" type="vtype0" depart="49.00" departLane="best">
        <route edges="road_0_1_0 road_1_1_1" />
    </vehicle>
    <vehicle id="75" type="vtype0" depart="51.00" departLane="best">
        <route edges="road_0_1_0 road_1_1_1" />
    </vehicle>
    <vehicle id="77" type="vtype0" depart="53.00" departLane="best">
        <route edges="road_1_2_3 road_1_1_0" />
    </vehicle>
    <vehicle id="79" type="vtype0" depart="55.00" departLane="best">
        <route edges="road_2_1_2 road_1_1_2" />
    </vehicle>
    <vehicle id="80" type="vtype0" depart="55.00" departLane="best">
        <route edges="road_1_0_1 road_1_1_1" />
    </vehicle>
    <vehicle id="81" type="vtype0" depart="55.00" departLane="best">
        <route edges="road_0_1_0 road_1_1_1" />
    </vehicle>
    <vehicle id="82" type="vtype0" depart="57.00" departLane="best">
        <route edges="road_1_2_3 road_1_1_0" />
    </vehicle>
    <vehicle id="83" type="vtype0" depart="57.00" departLane="best">
        <route edges="road_1_0_1 road_1_1_2" />
    </vehicle>
    <vehicle id="86" type="vtype0" depart="59.00" departLane="best">
        <route edges="road_2_1_2 road_1_1_3" />
    </vehicle>
    <vehicle id="87" type="vtype0" depart="59.00" departLane="best">
        <route edges="road_0_1_0 road_1_1_0" />
    </vehicle>
    <vehicle id="89" type="vtype0" depart="60.00" departLane="best">
        <route edges="road_1_0_1 road_1_1_2" />
    </vehicle>
    <vehicle id="91" type="vtype0" depart="60.00" departLane="best">
        <route edges="road_1_2_3 road_1_1_0" />
    </vehicle>
    <vehicle id="95" type="vtype0" depart="67.00" departLane="best">
        <route edges="road_0_1_0 road_1_1_1" />
    </vehicle>
    <vehicle id="96" type="vtype0" depart="67.00" departLane="best">
        <route edges="road_1_0_1 road_1_1_2" />
    </vehicle>
    <vehicle id="98" type="vtype0" depart="68.00" departLane="best">
        <route edges="road_1_0_1 road_1_1_2" />
    </vehicle>
    <vehicle id="101" type="vtype0" depart="72.00" departLane="best">
        <route edges="road_0_1_0 road_1_1_1" />
    </vehicle>
    <vehicle id="102" type="vtype0" depart="72.00" departLane="best">
        <route edges="road_1_0_1 road_1_1_2" />
    </vehicle>
    <vehicle id="104" type="vtype0" depart="73.00" departLane="best">
        <route edges="road_1_0_1 road_1_1_2" />
    </vehicle>
    <vehicle id="105" type="vtype0" depart="73.00" departLane="best">
        <route edges="road_1_2_3 road_1_1_0" />
    </vehicle>
    <vehicle id="108" type="vtype0" depart="75.00" departLane="best">
        <route edges="road_0_1_0 road_1_1_0" />
    </vehicle>
    <vehicle id="109" type="vtype0" depart="75.00" departLane="best">
        <route edges="road_1_2_3 road_1_1_3" />
    </vehicle>
    <vehicle id="110" type="vtype0" depart="76.00" departLane="best">
        <route edges="road_0_1_0 road_1_1_0" />
    </vehicle>
    <vehicle id="112" type="vtype0" depart="77.00" departLane="best">
        <route edges="road_1_2_3 road_1_1_3" />
    </vehicle>
    <vehicle id="114" type="vtype0" depart="77.00" departLane="best">
        <route edges="road_2_1_2 road_1_1_3" />
    </vehicle>
    <vehicle id="115" type="vtype0" depart="78.00" departLane="best">
        <route edges="road_0_1_0 road_1_1_1" />
    </vehicle>
    <vehicle id="117" type="vtype0" depart="79.00" departLane="best">
        <route edges="road_2_1_2 road_1_1_3" />
    </vehicle>
    <vehicle id="118" type="vtype0" depart="80.00" departLane="best">
        <route edges="road_2_1_2 road_1_1_3" />
    </vehicle>
    <vehicle id="119" type="vtype0" depart="80.00" departLane="best">
        <route edges="road_1_0_1 road_1_1_1" />
    </vehicle>
    <vehicle id="120" type="vtype0" depart="80.00" departLane="best">
        <route edges="road_2_1_2 road_1_1_3" />
    </vehicle>
    <vehicle id="121" type="vtype0" depart="81.00" departLane="best">
        <route edges="road_2_1_2 road_1_1_2" />
    </vehicle>
    <vehicle id="122" type="vtype0" depart="82.00" departLane="best">
        <route edges="road_2_1_2 road_1_1_2" />
    </vehicle>
    <vehicle id="123" type="vtype0" depart="83.00" departLane="best">
        <route edges="road_2_1_2 road_1_1_3" />
    </vehicle>
    <vehicle id="132" type="vtype0" depart="89.00" departLane="best">
        <route edges="road_0_1_0 road_1_1_0" />
    </vehicle>
    <vehicle id="133" type="vtype0" depart="89.00" departLane="best">
        <route edges="road_1_2_3 road_1_1_3" />
    </vehicle>
    <vehicle id="134" type="vtype0" depart="89.00" departLane="best">
        <route edges="road_0_1_0 road_1_1_1" />
    </vehicle>
    <vehicle id="135" type="vtype0" depart="90.00" departLane="best">
        <route edges="road_0_1_0 road_1_1_0" />
    </vehicle>
    <vehicle id="136" type="vtype0" depart="90.00" departLane="best">
        <route edges="road_0_1_0 road_1_1_0" />
    </vehicle>
    <vehicle id="137" type="vtype0" depart="91.00" departLane="best">
        <route edges="road_2_1_2 road_1_1_2" />
    </vehicle>
    <vehicle id="140" type="vtype0" depart="94.00" departLane="best">
        <route edges="road_1_2_3 road_1_1_0" />
    </vehicle>
    <vehicle id="142" type="vtype0" depart="94.00" departLane="best">
        <route edges="road_2_1_2 road_1_1_2" />
    </vehicle>
    <vehicle id="146" type="vtype0" depart="97.00" departLane="best">
        <route edges="road_0_1_0 road_1_1_0" />
    </vehicle>
    <vehicle id="147" type="vtype0" depart="97.00" departLane="best">
        <route edges="road_1_0_1 road_1_1_2" />
    </vehicle>
    <vehicle id="149" type="vtype0" depart="101.00" departLane="best">
        <route edges="road_0_1_0 road_1_1_1" />
    </vehicle>
    <vehicle id="151" type="vtype0" depart="103.00" departLane="best">
        <route edges="road_0_1_0 road_1_1_1" />
    </vehicle>
    <vehicle id="152" type="vtype0" depart="103.00" departLane="best">
        <route edges="road_0_1_0 road_1_1_0" />
    </vehicle>
    <vehicle id="155" type="vtype0" depart="106.00" departLane="best">
        <route edges="road_1_0_1 road_1_1_1" />
    </vehicle>
    <vehicle id="159" type="vtype0" depart="111.00" departLane="best">
        <route edges="road_1_2_3 road_1_1_3" />
    </vehicle>
    <vehicle id="160" type="vtype0" depart="112.00" departLane="best">
        <route edges="road_2_1_2 road_1_1_2" />
    </vehicle>
    <vehicle id="162" type="vtype0" depart="112.00" departLane="best">
        <route edges="road_2_1_2 road_1_1_3" />
    </vehicle>
    <vehicle id="164" type="vtype0" depart="114.00" departLane="best">
        <route edges="road_2_1_2 road_1_1_3" />
    </vehicle>
    <vehicle id="167" type="vtype0" depart="116.00" departLane="best">
        <route edges="road_1_0_1 road_1_1_2" />
    </vehicle>
    <vehicle id="174" type="vtype0" depart="124.00" departLane="best">
        <route edges="road_1_2_3 road_1_1_3" />
    </vehicle>
    <vehicle id="176" type="vtype0" depart="126.00" departLane="best">
        <route edges="road_1_2_3 road_1_1_3" />
    </vehicle>
    <vehicle id="181" type="vtype0" depart="129.00" departLane="best">
        <route edges="road_0_1_0 road_1_1_0" />
    </vehicle>
    <vehicle id="182" type="vtype0" depart="130.00" departLane="best">
        <route edges="road_1_0_1 road_1_1_1" />
    </vehicle>
    <vehicle id="185" type="vtype0" depart="132.00" departLane="best">
        <route edges="road_2_1_2 road_1_1_2" />
    </vehicle>
    <vehicle id="188" type="vtype0" depart="134.00" departLane="best">
        <route edges="road_2_1_2 road_1_1_2" />
    </vehicle>
    <vehicle id="190" type="vtype0" depart="136.00" departLane="best">
        <route edges="road_1_0_1 road_1_1_2" />
    </vehicle>
    <vehicle id="191" type="vtype0" depart="136.00" departLane="best">
        <route edges="road_1_0_1 road_1_1_2" />
    </vehicle>
    <vehicle id="195" type="vtype0" depart="139.00" departLane="best">
        <route edges="road_2_1_2 road_1_1_3" />
    </vehicle>
    <vehicle id="197" type="vtype0" depart="142.00" departLane="best">
        <route edges="road_0_1_0 road_1_1_0" />
    </vehicle>
    <vehicle id="201" type="vtype0" depart="145.00" departLane="best">
        <route edges="road_1_0_1 road_1_1_2" />
    </vehicle>
    <vehicle id="203" type="vtype0" depart="147.00" departLane="best">
        <route edges="road_1_0_1 road_1_1_1" />
    </vehicle>
    <vehicle id="207" type="vtype0" depart="150.00" departLane="best">
        <route edges="road_1_2_3 road_1_1_0" />
    </vehicle>
    <vehicle id="211" type="vtype0" depart="151.00" departLane="best">
        <route edges="road_0_1_0 road_1_1_0" />
    </vehicle>
    <vehicle id="215" type="vtype0" depart="154.00" departLane="best">
        <route edges="road_1_2_3 road_1_1_3" />
    </vehicle>
    <vehicle id="216" type="vtype0" depart="154.00" departLane="best">
        <route edges="road_2_1_2 road_1_1_3" />
    </vehicle>
    <vehicle id="217" type="vtype0" depart="155.00" departLane="best">
        <route edges="road_1_0_1 road_1_1_1" />
    </vehicle>
    <vehicle id="219" type="vtype0" depart="156.00" departLane="best">
        <route edges="road_1_0_1 road_1_1_2" />
    </vehicle>
    <vehicle id="220" type="vtype0" depart="157.00" departLane="best">
        <route edges="road_2_1_2 road_1_1_2" />
    </vehicle>
    <vehicle id="221" type="vtype0" depart="157.00" departLane="best">
        <route edges="road_1_2_3 road_1_1_3" />
    </vehicle>
    <vehicle id="223" type="vtype0" depart="159.00" departLane="best">
        <route edges="road_1_0_1 road_1_1_1" />
    </vehicle>
    <vehicle id="224" type="vtype0" depart="159.00" departLane="best">
        <route edges="road_1_0_1 road_1_1_2" />
    </vehicle>
    <vehicle id="227" type="vtype0" depart="161.00" departLane="best">
        <route edges="road_0_1_0 road_1_1_1" />
    </vehicle>
    <vehicle id="228" type="vtype0" depart="163.00" departLane="best">
        <route edges="road_1_2_3 road_1_1_0" />
    </vehicle>
    <vehicle id="230" type="vtype0" depart="166.00" departLane="best">
        <route edges="road_2_1_2 road_1_1_3" />
    </vehicle>
    <vehicle id="233" type="vtype0" depart="167.00" departLane="best">
        <route edges="road_1_2_3 road_1_1_0" />
    </vehicle>
    <vehicle id="234" type="vtype0" depart="168.00" departLane="best">
        <route edges="road_1_0_1 road_1_1_1" />
    </vehicle>
    <vehicle id="235" type="vtype0" depart="169.00" departLane="best">
        <route edges="road_0_1_0 road_1_1_0" />
    </vehicle>
    <vehicle id="239" type="vtype0" depart="171.00" departLane="best">
        <route edges="road_1_0_1 road_1_1_2" />
    </vehicle>
    <vehicle id="241" type="vtype0" depart="172.00" departLane="best">
        <route edges="road_0_1_0 road_1_1_1" />
    </vehicle>
    <vehicle id="242" type="vtype0" depart="172.00" departLane="best">
        <route edges="road_1_2_3 road_1_1_0" />
    </vehicle>
    <vehicle id="244" type="vtype0" depart="174.00" departLane="best">
        <route edges="road_2_1_2 road_1_1_3" />
    </vehicle>
    <vehicle id="245" type="vtype0" depart="175.00" departLane="best">
        <route edges="road_0_1_0 road_1_1_1" />
    </vehicle>
    <vehicle id="247" type="vtype0" depart="177.00" departLane="best">
        <route edges="road_1_0_1 road_1_1_1" />
    </vehicle>
    <vehicle id="248" type="vtype0" depart="178.00" departLane="best">
        <route edges="road_1_2_3 road_1_1_0" />
    </vehicle>
    <vehicle id="249" type="vtype0" depart="178.00" departLane="best">
        <route edges="road_1_2_3 road_1_1_3" />
    </vehicle>
    <vehicle id="250" type="vtype0" depart="179.00" departLane="best">
        <route edges="road_0_1_0 road_1_1_0" />
    </vehicle>
    <vehicle id="252" type="vtype0" depart="182.00" departLane="best">
        <route edges="road_0_1_0 road_1_1_1" />
    </vehicle>
    <vehicle id="255" type="vtype0" depart="184.00" departLane="best">
        <route edges="road_2_1_2 road_1_1_3" />
    </vehicle>
    <vehicle id="259" type="vtype0" depart="187.00" departLane="best">
        <route edges="road_0_1_0 road_1_1_1" />
    </vehicle>
    <vehicle id="260" type="vtype0" depart="188.00" departLane="best">
        <route edges="road_1_0_1 road_1_1_1" />
    </vehicle>
    <vehicle id="261" type="vtype0" depart="188.00" departLane="best">
        <route edges="road_1_2_3 road_1_1_3" />
    </vehicle>
    <vehicle id="264" type="vtype0" depart="190.00" departLane="best">
        <route edges="road_1_2_3 road_1_1_0" />
    </vehicle>
    <vehicle id="265" type="vtype0" depart="190.00" departLane="best">
        <route edges="road_2_1_2 road_1_1_2" />
    </vehicle>
    <vehicle id="268" type="vtype0" depart="194.00" departLane="best">
        <route edges="road_0_1_0 road_1_1_0" />
    </vehicle>
    <vehicle id="269" type="vtype0" depart="195.00" departLane="best">
        <route edges="road_2_1_2 road_1_1_3" />
    </vehicle>
    <vehicle id="272" type="vtype0" depart="196.00" departLane="best">
        <route edges="road_1_0_1 road_1_1_1" />
    </vehicle>
    <vehicle id="273" type="vtype0" depart="197.00" departLane="best">
        <route edges="road_1_0_1 road_1_1_1" />
    </vehicle>
    <vehicle id="275" type="vtype0" depart="199.00" departLane="best">
        <route edges="road_1_0_1 road_1_1_2" />
    </vehicle>
    <vehicle id="277" type="vtype0" depart="201.00" departLane="best">
        <route edges="road_2_1_2 road_1_1_3" />
    </vehicle>
    <vehicle id="280" type="vtype0" depart="202.00" departLane="best">
        <route edges="road_1_0_1 road_1_1_1" />
    </vehicle>
    <vehicle id="281" type="vtype0" depart="202.00" departLane="best">
        <route edges="road_0_1_0 road_1_1_1" />
    </vehicle>
    <vehicle id="283" type="vtype0" depart="203.00" departLane="best">
        <route edges="road_2_1_2 road_1_1_3" />
    </vehicle>
    <vehicle id="286" type="vtype0" depart="204.00" departLane="best">
        <route edges="road_0_1_0 road_1_1_1" />
    </vehicle>
    <vehicle id="287" type="vtype0" depart="206.00" departLane="best">
        <route edges="road_1_0_1 road_1_1_1" />
    </vehicle>
    <vehicle id="289" type="vtype0" depart="206.00" departLane="best">
        <route edges="road_2_1_2 road_1_1_2" />
    </vehicle>
    <vehicle id="290" type="vtype0" depart="207.00" departLane="best">
        <route edges="road_1_2_3 road_1_1_0" />
    </vehicle>
    <vehicle id="291" type="vtype0" depart="207.00" departLane="best">
        <route edges="road_1_0_1 road_1_1_2" />
    </vehicle>
    <vehicle id="292" type="vtype0" depart="207.00" departLane="best">
        <route edges="road_1_0_1 road_1_1_2" />
    </vehicle>
    <vehicle id="299" type="vtype0" depart="212.00" departLane="best">
        <route edges="road_0_1_0 road_1_1_0" />
    </vehicle>
    <vehicle id="300" type="vtype0" depart="213.00" departLane="best">
        <route edges="road_2_1_2 road_1_1_2" />
    </vehicle>
    <vehicle id="302" type="vtype0" depart="214.00" departLane="best">
        <route edges="road_2_1_2 road_1_1_3" />
    </vehicle>
    <vehicle id="303" type="vtype0" depart="214.00" departLane="best">
        <route edges="road_0_1_0 road_1_1_1" />
    </vehicle>
    <vehicle id="304" type="vtype0" depart="217.00" departLane="best">
        <route edges="road_1_2_3 road_1_1_3" />
    </vehicle>
    <vehicle id="310" type="vtype0" depart="220.00" departLane="best">
        <route edges="road_1_2_3 road_1_1_3" />
    </vehicle>
    <vehicle id="313" type="vtype0" depart="225.00" departLane="best">
        <route edges="road_1_0_1 road_1_1_1" />
    </vehicle>
    <vehicle id="316" type="vtype0" depart="226.00" departLane="best">
        <route edges="road_1_2_3 road_1_1_3" />
    </vehicle>
    <vehicle id="318" type="vtype0" depart="229.00" departLane="best">
        <route edges="road_0_1_0 road_1_1_0" />
    </vehicle>
    <vehicle id="321" type="vtype0" depart="231.00" departLane="best">
        <route edges="road_2_1_2 road_1_1_2" />
    </vehicle>
    <vehicle id="322" type="vtype0" depart="232.00" departLane="best">
        <route edges="road_2_1_2 road_1_1_3" />
    </vehicle>
    <vehicle id="324" type="vtype0" depart="233.00" departLane="best">
        <route edges="road_0_1_0 road_1_1_0" />
    </vehicle>
    <vehicle id="325" type="vtype0" depart="233.00" departLane="best">
        <route edges="road_1_0_1 road_1_1_2" />
    </vehicle>
    <vehicle id="326" type="vtype0" depart="234.00" departLane="best">
        <route edges="road_2_1_2 road_1_1_3" />
    </vehicle>
    <vehicle id="328" type="vtype0" depart="234.00" departLane="best">
        <route edges="road_1_0_1 road_1_1_2" />
    </vehicle>
    <vehicle id="332" type="vtype0" depart="239.00" departLane="best">
        <route edges="road_0_1_0 road_1_1_0" />
    </vehicle>
    <vehicle id="334" type="vtype0" depart="241.00" departLane="best">
        <route edges="road_1_0_1 road_1_1_2" />
    </vehicle>
    <vehicle id="335" type="vtype0" depart="242.00" departLane="best">
        <route edges="road_1_0_1 road_1_1_1" />
    </vehicle>
    <vehicle id="336" type="vtype0" depart="242.00" departLane="best">
        <route edges="road_0_1_0 road_1_1_1" />
    </vehicle>
    <vehicle id="341" type="vtype0" depart="248.00" departLane="best">
        <route edges="road_1_2_3 road_1_1_0" />
    </vehicle>
    <vehicle id="342" type="vtype0" depart="249.00" departLane="best">
        <route edges="road_2_1_2 road_1_1_2" />
    </vehicle>
    <vehicle id="344" type="vtype0" depart="250.00" departLane="best">
        <route edges="road_2_1_2 road_1_1_3" />
    </vehicle>
    <vehicle id="346" type="vtype0" depart="250.00" departLane="best">
        <route edges="road_0_1_0 road_1_1_1" />
    </vehicle>
    <vehicle id="347" type="vtype0" depart="252.00" departLane="best">
        <route edges="road_1_2_3 road_1_1_0" />
    </vehicle>
    <vehicle id="352" type="vtype0" depart="257.00" departLane="best">
        <route edges="road_1_2_3 road_1_1_0" />
    </vehicle>
    <vehicle id="353" type="vtype0" depart="257.00" departLane="best">
        <route edges="road_0_1_0 road_1_1_1" />
    </vehicle>
    <vehicle id="355" type="vtype0" depart="259.00" departLane="best">
        <route edges="road_0_1_0 road_1_1_0" />
    </vehicle>
    <vehicle id="364" type="vtype0" depart="264.00" departLane="best">
        <route edges="road_1_0_1 road_1_1_2" />
    </vehicle>
    <vehicle id="365" type="vtype0" depart="264.00" departLane="best">
        <route edges="road_1_0_1 road_1_1_1" />
    </vehicle>
    <vehicle id="366" type="vtype0" depart="264.00" departLane="best">
        <route edges="road_1_2_3 road_1_1_3" />
    </vehicle>
    <vehicle id="369" type="vtype0" depart="266.00" departLane="best">
        <route edges="road_1_0_1 road_1_1_2" />
    </vehicle>
    <vehicle id="374" type="vtype0" depart="272.00" departLane="best">
        <route edges="road_1_2_3 road_1_1_0" />
    </vehicle>
    <vehicle id="375" type="vtype0" depart="272.00" departLane="best">
        <route edges="road_2_1_2 road_1_1_2" />
    </vehicle>
    <vehicle id="376" type="vtype0" depart="273.00" departLane="best">
        <route edges="road_0_1_0 road_1_1_0" />
    </vehicle>
    <vehicle id="378" type="vtype0" depart="275.00" departLane="best">
        <route edges="road_2_1_2 road_1_1_3" />
    </vehicle>
    <vehicle id="379" type="vtype0" depart="276.00" departLane="best">
        <route edges="road_1_2_3 road_1_1_0" />
    </vehicle>
    <vehicle id="380" type="vtype0" depart="276.00" departLane="best">
        <route edges="road_1_0_1 road_1_1_1" />
    </vehicle>
    <vehicle id="382" type="vtype0" depart="277.00" departLane="best">
        <route edges="road_1_2_3 road_1_1_0" />
    </vehicle>
    <vehicle id="383" type="vtype0" depart="277.00" departLane="best">
        <route edges="road_0_1_0 road_1_1_1" />
    </vehicle>
    <vehicle id="385" type="vtype0" depart="279.00" departLane="best">
        <route edges="road_1_2_3 road_1_1_0" />
    </vehicle>
    <vehicle id="388" type="vtype0" depart="281.00" departLane="best">
        <route edges="road_1_0_1 road_1_1_2" />
    </vehicle>
    <vehicle id="389" type="vtype0" depart="282.00" departLane="best">
        <route edges="road_1_2_3 road_1_1_0" />
    </vehicle>
    <vehicle id="390" type="vtype0" depart="283.00" departLane="best">
        <route edges="road_1_0_1 road_1_1_2" />
    </vehicle>
    <vehicle id="392" type="vtype0" depart="283.00" departLane="best">
        <route edges="road_1_2_3 road_1_1_3" />
    </vehicle>
    <vehicle id="397" type="vtype0" depart="291.00" departLane="best">
        <route edges="road_0_1_0 road_1_1_0" />
    </vehicle>
    <vehicle id="399" type="vtype0" depart="292.00" departLane="best">
        <route edges="road_1_0_1 road_1_1_1" />
    </vehicle>
    <vehicle id="401" type="vtype0" depart="294.00" departLane="best">
        <route edges="road_0_1_0 road_1_1_0" />
    </vehicle>
    <vehicle id="410" type="vtype0" depart="300.00" departLane="best">
        <route edges="road_1_2_3 road_1_1_3" />
    </vehicle>
    <vehicle id="411" type="vtype0" depart="301.00" departLane="best">
        <route edges="road_0_1_0 road_1_1_0" />
    </vehicle>
    <vehicle id="412" type="vtype0" depart="302.00" departLane="best">
        <route edges="road_1_2_3 road_1_1_0" />
    </vehicle>
    <vehicle id="414" type="vtype0" depart="303.00" departLane="best">
        <route edges="road_2_1_2 road_1_1_2" />
    </vehicle>
    <vehicle id="417" type="vtype0" depart="305.00" departLane="best">
        <route edges="road_1_2_3 road_1_1_0" />
    </vehicle>
    <vehicle id="420" type="vtype0" depart="309.00" departLane="best">
        <route edges="road_0_1_0 road_1_1_1" />
    </vehicle>
    <vehicle id="421" type="vtype0" depart="310.00" departLane="best">
        <route edges="road_1_0_1 road_1_1_1" />
    </vehicle>
    <vehicle id="422" type="vtype0" depart="311.00" departLane="best">
        <route edges="road_2_1_2 road_1_1_3" />
    </vehicle>
    <vehicle id="425" type="vtype0" depart="315.00" departLane="best">
        <route edges="road_1_2_3 road_1_1_0" />
    </vehicle>
    <vehicle id="426" type="vtype0" depart="317.00" departLane="best">
        <route edges="road_1_2_3 road_1_1_0" />
    </vehicle>
    <vehicle id="428" type="vtype0" depart="318.00" departLane="best">
        <route edges="road_0_1_0 road_1_1_0" />
    </vehicle>
    <vehicle id="429" type="vtype0" depart="319.00" departLane="best">
        <route edges="road_1_2_3 road_1_1_3" />
    </vehicle>
    <vehicle id="430" type="vtype0" depart="319.00" departLane="best">
        <route edges="road_1_0_1 road_1_1_1" />
    </vehicle>
    <vehicle id="431" type="vtype0" depart="320.00" departLane="best">
        <route edges="road_1_2_3 road_1_1_3" />
    </vehicle>
    <vehicle id="432" type="vtype0" depart="321.00" departLane="best">
        <route edges="road_1_0_1 road_1_1_2" />
    </vehicle>
    <vehicle id="433" type="vtype0" depart="321.00" departLane="best">
        <route edges="road_0_1_0 road_1_1_0" />
    </vehicle>
    <vehicle id="434" type="vtype0" depart="323.00" departLane="best">
        <route edges="road_1_2_3 road_1_1_0" />
    </vehicle>
    <vehicle id="435" type="vtype0" depart="323.00" departLane="best">
        <route edges="road_2_1_2 road_1_1_3" />
    </vehicle>
    <vehicle id="438" type="vtype0" depart="326.00" departLane="best">
        <route edges="road_0_1_0 road_1_1_0" />
    </vehicle>
    <vehicle id="441" type="vtype0" depart="328.00" departLane="best">
        <route edges="road_2_1_2 road_1_1_3" />
    </vehicle>
    <vehicle id="444" type="vtype0" depart="330.00" departLane="best">
        <route edges="road_1_2_3 road_1_1_3" />
    </vehicle>
    <vehicle id="446" type="vtype0" depart="331.00" departLane="best">
        <route edges="road_0_1_0 road_1_1_0" />
    </vehicle>
    <vehicle id="447" type="vtype0" depart="332.00" departLane="best">
        <route edges="road_1_0_1 road_1_1_1" />
    </vehicle>
    <vehicle id="448" type="vtype0" depart="332.00" departLane="best">
        <route edges="road_0_1_0 road_1_1_1" />
    </vehicle>
    <vehicle id="450" type="vtype0" depart="333.00" departLane="best">
        <route edges="road_1_0_1 road_1_1_1" />
    </vehicle>
    <vehicle id="451" type="vtype0" depart="334.00" departLane="best">
        <route edges="road_2_1_2 road_1_1_3" />
    </vehicle>
    <vehicle id="454" type="vtype0" depart="336.00" departLane="best">
        <route edges="road_0_1_0 road_1_1_1" />
    </vehicle>
    <vehicle id="455" type="vtype0" depart="336.00" departLane="best">
        <route edges="road_0_1_0 road_1_1_1" />
    </vehicle>
    <vehicle id="456" type="vtype0" depart="337.00" departLane="best">
        <route edges="road_1_2_3 road_1_1_3" />
    </vehicle>
    <vehicle id="463" type="vtype0" depart="342.00" departLane="best">
        <route edges="road_1_2_3 road_1_1_3" />
    </vehicle>
    <vehicle id="466" type="vtype0" depart="346.00" departLane="best">
        <route edges="road_2_1_2 road_1_1_2" />
    </vehicle>
    <vehicle id="467" type="vtype0" depart="346.00" departLane="best">
        <route edges="road_1_2_3 road_1_1_0" />
    </vehicle>
    <vehicle id="468" type="vtype0" depart="348.00" departLane="best">
        <route edges="road_1_0_1 road_1_1_2" />
    </vehicle>
    <vehicle id="469" type="vtype0" depart="350.00" departLane="best">
        <route edges="road_0_1_0 road_1_1_0" />
    </vehicle>
    <vehicle id="473" type="vtype0" depart="353.00" departLane="best">