<additional>
	<!-- <vType accel="2.0" decel="4.5" id="vtype0" length="5.0" maxSpeed="11.11" minGap="2.5" width="2.0" jmIgnoreJunctionFoeProb="1.0"/> -->
	<timedEvent type="SaveTLSStates" source="intersection_1_1" dest="data.tll.switch.xml"/>
</additional>