<configuration>
  <input>
    <net-file value="net.net.xml"/>
	  <route-files value="ingolstadt21.rou.xml"/>
  </input>
  <time>
    <begin value="57600"/>
    <end value="61200"/>
  </time>
</configuration>
